LAMMPS (11 Feb 2026 - Development - patch_11Feb2026-11-gd97c5bdda6)
# ─────────────────────────────────────────────────────────────────────────────
# MB-pol NVT equilibration
# 512 H2O  |  24.8344 × 24.8344 × 74.5033 Å
# Generated by mbx-water-slab-prep / gen_input.py
#
# IMPORTANT — this is an unequilibrated Packmol structure.
# Run for at least 1–2 ns before collecting any production data.
# Adjust EQUIL_STEPS below to extend the run if needed.
#
# Requires mbx.json in the same directory (also generated by this tool).
# ─────────────────────────────────────────────────────────────────────────────

units           real
atom_style      full
boundary        p p p
processors      * * * map xyz

read_data       water_slab_512H2O_rho1.0_z3x.data
Reading data file ...
  orthogonal box = (0 0 0) to (24.834447 24.834447 74.503341)
  reading atoms ...
  1536 atoms
  scanning bonds ...
  scanning angles ...
  orthogonal box = (0 0 0) to (24.834447 24.834447 74.503341)
  reading bonds ...
  1024 bonds
  reading angles ...
  512 angles
Finding 1-2 1-3 1-4 neighbors ...
     2 = max # of 1-2 neighbors
     1 = max # of 1-3 neighbors
     1 = max # of 1-4 neighbors
     2 = max # of special neighbors

pair_style      mbx 9.0
pair_coeff      * * 1 h2o 1 2 2 json mbx.json

# MBX handles all intra- and inter-molecular interactions.
# Bond/angle sections are present for special-bond exclusions only.
bond_style      none
angle_style     none

neighbor        2.0 bin
neigh_modify    every 1 delay 0 check yes

timestep        0.2        # fs

# ── Step 1: Energy minimisation ───────────────────────────────────────────────
# Relaxes residual close contacts from Packmol so that the MBX induced-dipole
# CG solver converges on the very first dynamics step.  The stopping criterion
# is loose — we only need the geometry to be free of catastrophic overlaps.

minimize        1.0e-4 1.0e-6 500 5000

CITE-CITE-CITE-CITE-CITE-CITE-CITE-CITE-CITE-CITE-CITE-CITE-CITE

Your simulation uses code contributions which should be cited:

- pair mbx command:

@article{10.1063/5.0156036,
 author = {Riera, Marc and Knight, Christopher and Bull-Vulpe, Ethan F. and Zhu, Xuanyu and Agnew, Henry and Smith, Daniel G. A. and Simmonett, Andrew C. and Paesani, Francesco},
 title = "{MBX: A many-body energy and force calculator for data-driven many-body simulations}",
 journal = {The Journal of Chemical Physics},
 volume = {159},
 number = {5},
 pages = {054802},
 year = {2023},
 doi = {10.1063/5.0156036},
 version = {1.3.5}
}

CITE-CITE-CITE-CITE-CITE-CITE-CITE-CITE-CITE-CITE-CITE-CITE-CITE

Generated 0 of 1 mixed pair_coeff terms from geometric mixing rule
Step          Temp          E_pair         E_mol          TotEng         Press
0   0              3510.8159      0              3510.8159     -6643.5025
Loop time of 99.6372 on 48 procs for 247 steps with 1536 atoms

Minimization stats:
  Stopping criterion = energy tolerance
  Energy initial, next-to-last, final =
  Force two-norm initial, final = 2011.4683 34.860398
  Force max component initial, final = 98.330762 7.5247743
  Final line search alpha, max atom move = 0.0051666907 0.038878181
  Iterations, force evaluations = 247 478

reset_timestep  0

# ── Step 2: NVT equilibration ─────────────────────────────────────────────────
variable        T      equal  298.15
variable        Tdamp  equal  20.0   # ~100 × timestep (standard for MB-pol)
variable        EQUIL_STEPS equal 5000

thermo_style    custom step temp pe ke etotal press density cpu cpuremain
thermo          1000

dump            traj all custom 5000 traj_equil.lammpstrj                 id mol type x y z xu yu zu vx vy vz
dump_modify     traj sort id flush yes

# Rolling restart pair — allows resuming from the most recent checkpoint
restart         50000 restart_equil.a restart_equil.b

fix             1 all nvt temp 298.15 298.15 20

run             5000
Generated 0 of 1 mixed pair_coeff terms from geometric mixing rule
Step          Temp          PotEng         KinEng         TotEng         Press         Density          CPU          CPULeft
0   0             -5986.6223      0             -5986.6223     -309.71463      0.33333069     0              0
Loop time of 999.732 on 48 procs for 5000 steps with 1536 atoms

# ── Finalise ──────────────────────────────────────────────────────────────────
unfix           1
undump          traj
write_data      equil_final.data
System init for write_data ...
Generated 0 of 1 mixed pair_coeff terms from geometric mixing rule
